Circuit: * C:\users\alejopm\Favorites\alejopm\eng\ELT\eletronica-3\atividade-2\analises\1\script\3-ajuste_potenciometro.asc

Per .tran options, skipping operating point for transient analysis.
Changing Tseed to 1e-010
Changing Tseed to 1e-012
Changing Tseed to 1e-009
Changing Tseed to 1e-013
Changing Tseed to 1e-008
Changing Tseed to 1e-014
Changing Tseed to 1e-007
Changing Tseed to 1e-015
Changing Tseed to 1e-006
Changing Tseed to 1e-016
Changing Tseed to 1e-005
Changing Tseed to 1e-017
Heightened Def Con from 0 Changing Tseed to 1e-009
Changing Tseed to 1e-011
Changing Tseed to 1e-008
Changing Tseed to 1e-012
Changing Tseed to 1e-007
Changing Tseed to 1e-013
Changing Tseed to 1e-006
Changing Tseed to 1e-014
Changing Tseed to 1e-005
Changing Tseed to 1e-015
Changing Tseed to 0.0001
Changing Tseed to 1e-016
+Changing Tseed to 1e-009
Changing Tseed to 1e-011
Changing Tseed to 1e-008
Changing Tseed to 1e-012
Changing Tseed to 1e-007
Changing Tseed to 1e-013
Changing Tseed to 1e-006
Changing Tseed to 1e-014
Changing Tseed to 1e-005
Changing Tseed to 1e-015
Changing Tseed to 0.0001
Changing Tseed to 1e-016
+Changing Tseed to 1e-009
Changing Tseed to 1e-011
Changing Tseed to 1e-008
Changing Tseed to 1e-012
Changing Tseed to 1e-007
Changing Tseed to 1e-013
Changing Tseed to 1e-006
Changing Tseed to 1e-014
Changing Tseed to 1e-005
Changing Tseed to 1e-015
Changing Tseed to 0.0001
Changing Tseed to 1e-016
+Changing Tseed to 1e-009
Changing Tseed to 1e-011
Changing Tseed to 1e-008
Changing Tseed to 1e-012
Changing Tseed to 1e-007
Changing Tseed to 1e-013
Changing Tseed to 1e-006
Changing Tseed to 1e-014
Changing Tseed to 1e-005
Changing Tseed to 1e-015
Changing Tseed to 0.0001
Changing Tseed to 1e-016
+Changing Tseed to 1e-009
Changing Tseed to 1e-011
Changing Tseed to 1e-008
Changing Tseed to 1e-012
Changing Tseed to 1e-007
Changing Tseed to 1e-013
Changing Tseed to 1e-006
Changing Tseed to 1e-014
Changing Tseed to 1e-005
Changing Tseed to 1e-015
Changing Tseed to 0.0001
Changing Tseed to 1e-016
+Changing Tseed to 1e-009
Changing Tseed to 1e-011
Changing Tseed to 1e-008
Changing Tseed to 1e-012
Changing Tseed to 1e-007
Changing Tseed to 1e-013
Changing Tseed to 1e-006
Changing Tseed to 1e-014
Changing Tseed to 1e-005
Changing Tseed to 1e-015
Changing Tseed to 0.0001
Changing Tseed to 1e-016
+Changing Tseed to 1e-009
Changing Tseed to 1e-011
Changing Tseed to 1e-008
Changing Tseed to 1e-012
Changing Tseed to 1e-007
Changing Tseed to 1e-013
Changing Tseed to 1e-006
Changing Tseed to 1e-014
Changing Tseed to 1e-005
Changing Tseed to 1e-015
Changing Tseed to 0.0001
Changing Tseed to 1e-016
+Changing Tseed to 1e-009
Changing Tseed to 1e-011
Changing Tseed to 1e-008
Changing Tseed to 1e-012
Changing Tseed to 1e-007
Changing Tseed to 1e-013
Changing Tseed to 1e-006
Changing Tseed to 1e-014
Changing Tseed to 1e-005
Changing Tseed to 1e-015
Changing Tseed to 0.0001
Changing Tseed to 1e-016
+Changing Tseed to 1e-009
Changing Tseed to 1e-011
Changing Tseed to 1e-008
Changing Tseed to 1e-012
Changing Tseed to 1e-007
Changing Tseed to 1e-013
Changing Tseed to 1e-006
Changing Tseed to 1e-014
Changing Tseed to 1e-005
Changing Tseed to 1e-015
Changing Tseed to 0.0001
Changing Tseed to 1e-016
+Changing Tseed to 1e-009
Changing Tseed to 1e-011
Changing Tseed to 1e-008
Changing Tseed to 1e-012
Changing Tseed to 1e-007
Changing Tseed to 1e-013
Changing Tseed to 1e-006
Changing Tseed to 1e-014
Changing Tseed to 1e-005
Changing Tseed to 1e-015
Changing Tseed to 0.0001
Changing Tseed to 1e-016
+Changing Tseed to 1e-009
Changing Tseed to 1e-011
Changing Tseed to 1e-008
Changing Tseed to 1e-012
Changing Tseed to 1e-007
Changing Tseed to 1e-013
Changing Tseed to 1e-006
Changing Tseed to 1e-014
Changing Tseed to 1e-005
Changing Tseed to 1e-015
Changing Tseed to 0.0001
Changing Tseed to 1e-016
+Changing Tseed to 1e-009
Changing Tseed to 1e-011
Changing Tseed to 1e-008
Changing Tseed to 1e-012
Changing Tseed to 1e-007
Changing Tseed to 1e-013
Changing Tseed to 1e-006
Changing Tseed to 1e-014
Changing Tseed to 1e-005
Changing Tseed to 1e-015
Changing Tseed to 0.0001
Changing Tseed to 1e-016
+Changing Tseed to 1e-009
Changing Tseed to 1e-011
Changing Tseed to 1e-008
Changing Tseed to 1e-012
Changing Tseed to 1e-007
Changing Tseed to 1e-013
Changing Tseed to 1e-006
Changing Tseed to 1e-014
Changing Tseed to 1e-005
Changing Tseed to 1e-015
Changing Tseed to 0.0001
Changing Tseed to 1e-016
+Changing Tseed to 1e-009
Changing Tseed to 1e-011
Changing Tseed to 1e-008
Changing Tseed to 1e-012
Changing Tseed to 1e-007
Changing Tseed to 1e-013
Changing Tseed to 1e-006
Changing Tseed to 1e-014
Changing Tseed to 1e-005
Changing Tseed to 1e-015
Changing Tseed to 0.0001
Changing Tseed to 1e-016
+Changing Tseed to 1e-009
Changing Tseed to 1e-011
Changing Tseed to 1e-008
Changing Tseed to 1e-012
Changing Tseed to 1e-007
Changing Tseed to 1e-013
Changing Tseed to 1e-006
Changing Tseed to 1e-014
Changing Tseed to 1e-005
Changing Tseed to 1e-015
Changing Tseed to 0.0001
Changing Tseed to 1e-016
+Changing Tseed to 1e-009
Changing Tseed to 1e-011
Changing Tseed to 1e-008
Changing Tseed to 1e-012
Changing Tseed to 1e-007
Changing Tseed to 1e-013
Changing Tseed to 1e-006
Changing Tseed to 1e-014
Changing Tseed to 1e-005
Changing Tseed to 1e-015
Changing Tseed to 0.0001
Changing Tseed to 1e-016
+Changing Tseed to 1e-009
Changing Tseed to 1e-011
Changing Tseed to 1e-008
Changing Tseed to 1e-012
Changing Tseed to 1e-007
Changing Tseed to 1e-013
Changing Tseed to 1e-006
Changing Tseed to 1e-014
Changing Tseed to 1e-005
Changing Tseed to 1e-015
Changing Tseed to 0.0001
Changing Tseed to 1e-016
+Changing Tseed to 1e-009
Changing Tseed to 1e-011
Changing Tseed to 1e-008
Changing Tseed to 1e-012
Changing Tseed to 1e-007
Changing Tseed to 1e-013
Changing Tseed to 1e-006
Changing Tseed to 1e-014
Changing Tseed to 1e-005
Changing Tseed to 1e-015
Changing Tseed to 0.0001
Changing Tseed to 1e-016
+Changing Tseed to 1e-009
to 1.5e-009
Heightened Def Con from 1.51622e-009 to 4.51622e-009

vout_passive: PP(v(vout_passive))=0.382554 FROM 0 TO 0.004
gain_passive: vout_passive/vin_passive=0.0222576
phase_passive: 360*(1/(period_passive/dt_passive))=-185.281
period_passive=0.000659539 FROM 0.0012426 TO 0.00190214
dt_passive=-0.000339445 FROM 0.0012426 TO 0.000903156
frequency_passive: 1/period_passive=1516.21
vin_passive: PP(v(vin_passive))=17.1876 FROM 0 TO 0.004
vout_active: PP(v(vout_opamp))=17.1876 FROM 0 TO 0.004
gain_active: vout_active/vin_active=44.9285
phase_active: 360*(1/(period_active/dt_active))=185.27
period_active=0.000659578 FROM 0.000903156 TO 0.00156273
dt_active=0.000339445 FROM 0.000903156 TO 0.0012426
frequency_active: 1/period_active=1516.12
vin_active: PP(v(vin_opamp))=0.382554 FROM 0 TO 0.004
gain_total: gain_passive*gain_active=1
phase_total: phase_passive+phase_active=-0.010847


Date: Sat May 27 17:46:39 2023
Total elapsed time: 2.815 seconds.

tnom = 27
temp = 27
method = Gear
totiter = 203799
traniter = 203799
tranpoints = 100499
accept = 100167
rejected = 123
matrix size = 42
fillins = 42
solver = Alternate
Matrix Compiler1: 5.12 KB object code size  5.4/4.8/[4.9]
Matrix Compiler2: 4.58 KB object code size  5.1/4.9/[4.6]

